<?xml version="1.0" encoding="UTF-8"?>

<!-- generated on 2022-05-03 12:09:33 by Eclipse SUMO netedit Version 1.12.0
-->

<routes xmlns:xsi="http://www.w3.org/2001/XMLSchema-instance" xsi:noNamespaceSchemaLocation="http://sumo.dlr.de/xsd/routes_file.xsd">
    <vType id="AV.STRAIGHT" vClass="passenger" guiShape="passenger" color="white" sigma="0" jmDriveAfterYellowTime="0" impatience="0" />
		<!--
		<param key="airDragCoefficient" value="0.35"/>
        <param key="constantPowerIntake" value="100"/>
        <param key="frontSurfaceArea" value="2.6"/>
        <param key="has.battery.device" value="true"/>
        <param key="internalMomentOfInertia" value="0.01"/>
        <param key="maximumBatteryCapacity" value="64000"/>
        <param key="maximumPower" value="150000"/>
        <param key="propulsionEfficiency" value=".98"/>
        <param key="radialDragCoefficient" value="0.1"/>
        <param key="recuperationEfficiency" value=".96"/>
        <param key="rollDragCoefficient" value="0.01"/>
        <param key="stoppingTreshold" value="0.1"/>
        <param key="vehicleMass" value="1830"/>
    </vType>
	-->
		<!--
		<route id="r_1" edges="-gneE2 gneE4 gneE45 gneE46 gneE47 gneE48 gneE49 gneE50 gneE51 gneE52 gneE53 gneE54 gneE55 gneE56 gneE57 gneE58 gneE59 gneE60 -gneE4 gneE2 gneE30 gneE31 gneE32 gneE33 gneE34 gneE35 gneE36 gneE37 gneE38 gneE39 gneE40 gneE41 gneE42 gneE43" color="14,186,219,0" repeat="1"/>
			<flow id="f_1" type="ev-hv-1" begin="0.00" color="245,201,120" route="r_1" end="100000000.00" vehsPerHour="100.00"/>
		-->
	
		<!-- HORIZONTAL FLOWS AV -->
		<route id="rWE-1" edges="-gneE2 gneE4" repeat="0"/>
			<flow id="fWE.AV" type="AV.STRAIGHT" route="rWE-1" begin="0.00" end="100000000.00" color="white" departLane="best" departPos="base" departSpeed="random" vehsPerHour="80"/>	
	
		<route id="rEW-1" edges="-gneE4 gneE2" repeat="0"/>
			<flow id="fEW.AV" type="AV.STRAIGHT" route="rEW-1" begin="0.00" end="100000000.00" color="white" departLane="best" departPos="base" departSpeed="random" vehsPerHour="80"/>

		<!-- VERTICAL FLOWS AV -->
	    <route id="rSN-1" edges="-gneE3 -gneE1" repeat="0"/>
			<flow id="fSN.AV" type="AV.STRAIGHT" route="rSN-1" begin="0.00" end="100000000.00" color="white" departLane="best" departPos="base" departSpeed="random" vehsPerHour="80"/>	
	
		<route id="rNS-1" edges="gneE1 gneE3" repeat="0"/>
			<flow id="fNS.AV" type="AV.STRAIGHT" route="rNS-1" begin="0.00" end="100000000.00" color="white" departLane="best" departPos="base" departSpeed="random" vehsPerHour="80"/>
	
	
	
	<vType id="HDV.STRAIGHT" vClass="passenger" guiShape="delivery" color="yellow" sigma="0.5" jmDriveAfterYellowTime="0" impatience="0" />
	
	<!-- HORIZONTAL FLOWS HDV -->
		<route id="rWE-2" edges="-gneE2 gneE4" repeat="0"/>
			<flow id="fWE.HDV" type="HDV.STRAIGHT" route="rWE-2" begin="0.00" end="100000000.00" color="yellow" departLane="best" departPos="base" departSpeed="random" vehsPerHour="720"/>	
	
		<route id="rEW-2" edges="-gneE4 gneE2" repeat="0"/>
			<flow id="fEW.HDV" type="HDV.STRAIGHT" route="rEW-2" begin="0.00" end="100000000.00" color="yellow" departLane="best" departPos="base" departSpeed="random" vehsPerHour="720"/>

	<!-- VERTICAL FLOWS HDV -->
	    <route id="rSN-2" edges="-gneE3 -gneE1" repeat="0"/>
			<flow id="fSN.HDV" type="HDV.STRAIGHT" route="rSN-2" begin="0.00" end="100000000.00" color="yellow" departLane="best" departPos="base" departSpeed="random" vehsPerHour="720"/>	
	
		<route id="rNS-2" edges="gneE1 gneE3" repeat="0"/>
			<flow id="fNS.HDV" type="HDV.STRAIGHT" route="rNS-2" begin="0.00" end="100000000.00" color="yellow" departLane="best" departPos="base" departSpeed="random" vehsPerHour="720"/>
			
			
			
			
</routes>
