<?xml version="1.0" encoding="UTF-8"?>

<!-- generated on 2022-05-03 12:09:33 by Eclipse SUMO netedit Version 1.12.0
-->

<routes xmlns:xsi="http://www.w3.org/2001/XMLSchema-instance" xsi:noNamespaceSchemaLocation="http://sumo.dlr.de/xsd/routes_file.xsd">
    <vType id="ev-hv-1" vClass="passenger" guiShape="passenger" color="225,195,112,0" jmDriveAfterYellowTime="0" impatience="0" />
    <!--    <param key="airDragCoefficient" value="0.35"/>
        <param key="constantPowerIntake" value="100"/>
        <param key="frontSurfaceArea" value="2.6"/>
        <param key="has.battery.device" value="true"/>
        <param key="internalMomentOfInertia" value="0.01"/>
        <param key="maximumBatteryCapacity" value="64000"/>
        <param key="maximumPower" value="150000"/>
        <param key="propulsionEfficiency" value=".98"/>
        <param key="radialDragCoefficient" value="0.1"/>
        <param key="recuperationEfficiency" value=".96"/>
        <param key="rollDragCoefficient" value="0.01"/>
        <param key="stoppingTreshold" value="0.1"/>
        <param key="vehicleMass" value="1830"/>
    </vType>
	-->
	<!--
    <route id="r_1" edges="-gneE2 gneE4 gneE45 gneE46 gneE47 gneE48 gneE49 gneE50 gneE51 gneE52 gneE53 gneE54 gneE55 gneE56 gneE57 gneE58 gneE59 gneE60 -gneE4 gneE2 gneE30 gneE31 gneE32 gneE33 gneE34 gneE35 gneE36 gneE37 gneE38 gneE39 gneE40 gneE41 gneE42 gneE43" color="14,186,219,0" repeat="1"/>
    <flow id="f_1" type="ev-hv-1" begin="0.00" color="245,201,120" route="r_1" end="100000000.00" vehsPerHour="100.00"/>
	-->
	
	<route id="rWE" edges="-gneE2 gneE4" color="79,229,245,0" repeat="0"/>
    <flow id="fWE" type="ev-hv-1" begin="0.00" color="green" route="rWE" end="100000000.00" departLane="best" departPos="base" departSpeed="random" vehsPerHour="100"/>	
	
	<route id="rEW" edges="-gneE4 gneE2" color="79,229,245,0" repeat="0"/>
    <flow id="fEW" type="ev-hv-1" begin="0.00" color="green" route="rEW" end="100000000.00" departLane="best" departPos="base" departSpeed="random" vehsPerHour="100"/>
</routes>
