<?xml version="1.0" encoding="UTF-8"?>

<!-- generated on 2022-05-03 12:09:33 by Eclipse SUMO netedit Version 1.12.0
-->

<routes xmlns:xsi="http://www.w3.org/2001/XMLSchema-instance" xsi:noNamespaceSchemaLocation="http://sumo.dlr.de/xsd/routes_file.xsd">
    <vType id="AV.STRAIGHT" vClass="passenger" guiShape="passenger" color="white" sigma="0" jmDriveAfterYellowTime="0" impatience="0" />
		<!--
		<param key="airDragCoefficient" value="0.35"/>
        <param key="constantPowerIntake" value="100"/>
        <param key="frontSurfaceArea" value="2.6"/>
        <param key="has.battery.device" value="true"/>
        <param key="internalMomentOfInertia" value="0.01"/>
        <param key="maximumBatteryCapacity" value="64000"/>
        <param key="maximumPower" value="150000"/>
        <param key="propulsionEfficiency" value=".98"/>
        <param key="radialDragCoefficient" value="0.1"/>
        <param key="recuperationEfficiency" value=".96"/>
        <param key="rollDragCoefficient" value="0.01"/>
        <param key="stoppingTreshold" value="0.1"/>
        <param key="vehicleMass" value="1830"/>
    </vType>
	-->
	
		<!-- HORIZONTAL FLOWS AV -->
		<route id="rWE-1" edges="-edW edE" repeat="0"/>
			<flow id="fWE.AV" type="AV.STRAIGHT" route="rWE-1" begin="0.00" end="100000000.00" color="white" departLane="best" departPos="base" departSpeed="random" vehsPerHour="150"/>	
	
		<route id="rEW-1" edges="-edE edW" repeat="0"/>
			<flow id="fEW.AV" type="AV.STRAIGHT" route="rEW-1" begin="0.00" end="100000000.00" color="white" departLane="best" departPos="base" departSpeed="random" vehsPerHour="450"/>

		<!-- VERTICAL FLOWS AV -->
		<route id="rNS-1" edges="-edN edS" repeat="0"/>
			<flow id="fNS.AV" type="AV.STRAIGHT" route="rNS-1" begin="0.00" end="100000000.00" color="white" departLane="best" departPos="base" departSpeed="random" vehsPerHour="300"/>
	
	    <route id="rSN-1" edges="-edS edN" repeat="0"/>
			<flow id="fSN.AV" type="AV.STRAIGHT" route="rSN-1" begin="0.00" end="100000000.00" color="white" departLane="best" departPos="base" departSpeed="random" vehsPerHour="600"/>	
	
	
	<vType id="HDV.STRAIGHT" vClass="passenger" guiShape="delivery" color="yellow" sigma="0.5" jmDriveAfterYellowTime="0" impatience="0" />
	
	<!-- HORIZONTAL FLOWS HDV -->
		<route id="rWE-2" edges="-edW edE" repeat="0"/>
			<flow id="fWE.HDV" type="HDV.STRAIGHT" route="rWE-2" begin="0.00" end="100000000.00" color="yellow" departLane="best" departPos="base" departSpeed="random" vehsPerHour="450"/>	
	
		<route id="rEW-2" edges="-edE edW" repeat="0"/>
			<flow id="fEW.HDV" type="HDV.STRAIGHT" route="rEW-2" begin="0.00" end="100000000.00" color="yellow" departLane="best" departPos="base" departSpeed="random" vehsPerHour="150"/>

	<!-- VERTICAL FLOWS HDV -->
	<route id="rNS-2" edges="-edN edS" repeat="0"/>
			<flow id="fNS.HDV" type="HDV.STRAIGHT" route="rNS-2" begin="0.00" end="100000000.00" color="yellow" departLane="best" departPos="base" departSpeed="random" vehsPerHour="300"/>
		
	<!--
	<route id="rSN-2" edges="-edS edN" repeat="0"/>
			<flow id="fSN.HDV" type="HDV.STRAIGHT" route="rSN-2" begin="0.00" end="100000000.00" color="yellow" departLane="best" departPos="base" departSpeed="random" vehsPerHour="0"/>	
	-->	
			
</routes>
